data/rts-gmlc-gic/powerworld/RTS-GMLC-GIC_Bus.aux
Bus (Number,Name,AreaName,Latitude,Longitude,SubLatitude,SubLongitude,SubNumber,NomkV,
   Vpu,kV,Vangle,LoadMW,LoadMvar,GenMW,GenMvar,ShuntMvar,ActG,ActB,AreaNumber,
   ZoneNumber)
{
   101 "ABEL"         "1" "" ""    42.40  -117.84 1 138.00  1.06095  146.412   -67.26   108.00    22.00     0.00     0.00 ""     0.00     0.00        1       11
   102 "ADAMS"        "1" "" ""    42.36  -117.83 2 138.00  1.06089  146.402   -67.42    97.00    20.00     0.00     0.00 ""     0.00     0.00        1       12
   103 "ADLER"        "1" "" ""    42.54  -118.67 3 138.00  0.92294  127.366   -61.56   180.00    37.00     0.00     0.00 ""     0.00     0.00        1       11
   104 "AGRICOLA"     "1" "" ""    42.81  -117.83 4 138.00  1.00662  138.913   -69.60    74.00    15.00     0.00     0.00 ""     0.00     0.00        1       11
   105 "AIKEN"        "1" "" ""    42.66  -118.00 5 138.00  1.03783  143.220   -70.05    71.00    14.00 "" "" ""     0.00     0.00        1       11
   106 "ALBER"        "1" "" ""    42.74  -118.18 6 138.00  1.02803  141.869   -72.60   136.00    28.00 "" ""  -105.69     0.00     0.00        1       12
   107 "ALDER"        "1" "" ""    43.70  -117.70 7 138.00  1.00707  138.976   -75.84   125.00    25.00     0.00     0.00 ""     0.00     0.00        1       12
   108 "ALGER"        "1" "" ""    43.46  -117.76 8 138.00  0.98072  135.339   -76.13   171.00    35.00 "" "" ""     0.00     0.00        1       12
   109 "ALI"          "1" "" ""    42.92  -118.31 9 138.00  0.99662  137.534   -67.19   175.00    36.00 "" "" ""     0.00     0.00        1       13
   110 "ALLEN"        "1" "" ""    42.92  -118.31 9 138.00  1.04119  143.685   -69.73   195.00    40.00 "" "" ""     0.00     0.00        1       13
   111 "ANNA"         "1" "" ""    42.92  -118.31 9 230.00  1.01801  234.143   -60.98 "" "" "" "" ""     0.00     0.00        1       13
   112 "ARCHER"       "1" "" ""    42.92  -118.31 9 230.00  1.00886  232.037   -61.17 "" "" "" "" ""     0.00     0.00        1       13
   113 "ARNE"         "1" "" ""    43.35  -118.27 10 230.00  1.02607  235.995   -59.60   265.00    54.00     0.00     0.00 ""     0.00     0.00        1       14
   114 "ARNOLD"       "1" "" ""    42.78  -118.82 11 230.00  1.05535  242.731   -55.17   194.00    39.00     0.00     0.00 ""     0.00     0.00        1       16
   115 "ARTHUR"       "1" "" ""    42.51  -119.33 12 230.00  0.88570  203.710   -33.67   317.00    64.00     0.00     0.00 ""     0.00     0.00        1       16
   116 "ASSER"        "1" "" ""    42.66  -119.32 13 230.00  0.92432  212.594   -37.84   100.00    20.00     0.00     0.00 ""     0.00     0.00        1       16
   117 "ASTON"        "1" "" ""    42.58  -119.64 14 230.00  0.90638  208.467   -28.06 "" "" "" "" ""     0.00     0.00        1       17
   118 "ASTOR"        "1" "" ""    42.54  -119.80 15 230.00  0.88898  204.466   -24.37   333.00    68.00     0.00     0.00 ""     0.00     0.00        1       17
   119 "ATTAR"        "1" "" ""    42.87  -119.37 16 230.00  0.97013  223.129   -44.49   181.00    37.00     0.00     0.00 ""     0.00     0.00        1       15
   120 "ATTILA"       "1" "" ""    43.24  -119.26 17 230.00  1.02766  236.361   -47.58   128.00    26.00 "" "" ""     0.00     0.00        1       15
   121 "ATTLEE"       "1" "" ""    42.53  -120.07 18 230.00  0.87981  202.357   -19.42 "" ""     0.00     0.00 ""     0.00     0.00        1       17
   122 "AUBREY"       "1" "" ""    41.82  -120.32 19 230.00  1.05420  242.467   -16.51 "" ""     0.00     0.00 ""     0.00     0.00        1       17
   123 "AUSTEN"       "1" "" ""    43.38  -119.07 20 230.00  1.06319  244.534   -48.42 "" ""     0.00     0.00 ""     0.00     0.00        1       15
   124 "AVERY"        "1" "" ""    42.54  -118.67 3 230.00  0.85991  197.778   -44.51 "" "" "" "" ""     0.00     0.00        1       16
   201 "BACH"         "2" "" ""    45.26  -117.72 21 138.00  1.07240  147.991   -84.69   108.00    22.00     0.00     0.00 ""     0.00     0.00        2       21
   202 "BACON"        "2" "" ""    45.29  -117.75 22 138.00  1.07240  147.992   -84.75    97.00    20.00     0.00     0.00 ""     0.00     0.00        2       22
   203 "BAFFIN"       "2" "" ""    44.35  -117.98 23 138.00  1.01767  140.439   -80.11   180.00    37.00 "" "" ""     0.00     0.00        2       21
   204 "BAILEY"       "2" "" ""    45.19  -118.22 24 138.00  1.03119  142.305   -86.51    74.00    15.00 "" "" ""     0.00     0.00        2       21
   205 "BAIN"         "2" "" ""    45.08  -117.98 25 138.00  1.05270  145.273   -87.07    71.00    14.00 "" "" ""     0.00     0.00        2       21
   206 "BAJER"        "2" "" ""    44.79  -117.89 26 138.00  1.04501  144.212   -89.35   136.00    28.00 "" ""  -109.20     0.00     0.00        2       22
   207 "BAKER"        "2" "" ""    45.05  -117.08 27 138.00  0.95873  132.304   -94.51   125.00    25.00     0.00     0.00 ""     0.00     0.00        2       22
   208 "BALCH"        "2" "" ""    44.93  -117.32 28 138.00  0.96191  132.744   -93.90   171.00    35.00 "" "" ""     0.00     0.00        2       22
   209 "BALZAC"       "2" "" ""    44.80  -118.17 29 138.00  1.03152  142.350   -83.88   175.00    36.00 "" "" ""     0.00     0.00        2       23
   210 "BANKS"        "2" "" ""    44.80  -118.17 29 138.00  1.05936  146.192   -86.38   195.00    40.00 "" "" ""     0.00     0.00        2       23
   211 "BARDEEN"      "2" "" ""    44.80  -118.17 29 230.00  1.04599  240.577   -77.69 "" "" "" "" ""     0.00     0.00        2       23
   212 "BARKLA"       "2" "" ""    44.80  -118.17 29 230.00  1.03745  238.612   -76.91 "" ""     0.00     0.00 ""     0.00     0.00        2       23
   213 "BARLOW"       "2" "" ""    45.15  -118.62 30 230.00  1.06905  245.882   -73.09   265.00    54.00     0.00     0.00 ""     0.00     0.00        2       24
   214 "BARRY"        "2" "" ""    44.57  -118.49 31 230.00  1.07157  246.460   -74.74   194.00    39.00     0.00     0.00 ""     0.00     0.00        2       26
   215 "BARTON"       "2" "" ""    44.15  -118.58 32 230.00  1.05921  243.619   -63.01   317.00    64.00     0.00     0.00 ""     0.00     0.00        2       26
   216 "BASOV"        "2" "" ""    44.26  -118.73 33 230.00  1.06492  244.933   -64.26   100.00    20.00     0.00     0.00 ""     0.00     0.00        2       26
   217 "BATES"        "2" "" ""    44.09  -118.92 34 230.00  1.06261  244.401   -59.22 "" "" "" "" ""     0.00     0.00        2       27
   218 "BAYLE"        "2" "" ""    44.11  -119.08 35 230.00  1.06463  244.866   -59.43   333.00    68.00     0.00     0.00 ""     0.00     0.00        2       27
   219 "BEDE"         "2" "" ""    44.42  -118.98 36 230.00  1.06035  243.880   -66.82   181.00    37.00 "" "" ""     0.00     0.00        2       25
   220 "BEETHOVEN"    "2" "" ""    44.65  -119.45 37 230.00  1.06695  245.398   -67.17   128.00    26.00 "" "" ""     0.00     0.00        2       25
   221 "BEHRING"      "2" "" ""    44.32  -119.20 38 230.00  1.06991  246.079   -58.61 "" ""     0.00     0.00 ""     0.00     0.00        2       27
   222 "BELL"         "2" "" ""    45.33  -119.29 39 230.00  1.06957  246.001   -52.37 "" ""     0.00     0.00 ""     0.00     0.00        2       27
   223 "BLOCH"        "2" "" ""    44.82  -119.54 40 230.00  1.07376  246.964   -66.63 "" ""     0.00     0.00 ""     0.00     0.00        2       25
   224 "BORDET"       "2" "" ""    44.35  -117.98 23 230.00  1.02059  234.735   -69.25 "" "" "" "" ""     0.00     0.00        2       26
   301 "CABELL"       "3" "" ""    44.05  -122.82 41 138.00  1.13395  156.485  -117.75   108.00    22.00     0.00     0.00 ""     0.00     0.00        3       31
   302 "CABOT"        "3" "" ""    44.03  -122.86 42 138.00  1.13501  156.631  -117.87    97.00    20.00     0.00     0.00 ""     0.00     0.00        3       32
   303 "CAESAR"       "3" "" ""    44.21  -122.03 43 138.00  1.02588  141.571  -109.95   180.00    37.00     0.00     0.00 ""     0.00     0.00        3       31
   304 "CAINE"        "3" "" ""    43.63  -122.56 44 138.00  1.05320  145.341  -117.72    74.00    15.00 "" "" ""     0.00     0.00        3       31
   305 "CALVIN"       "3" "" ""    43.87  -122.51 45 138.00  1.08331  149.497  -118.60    71.00    14.00 "" "" ""     0.00     0.00        3       31
   306 "CAMUS"        "3" "" ""    43.89  -122.28 46 138.00  1.06192  146.545  -120.10   136.00    28.00 "" ""  -112.77     0.00     0.00        3       32
   307 "CAREW"        "3" "" ""    43.10  -122.88 47 138.00  1.06239  146.610  -125.55   125.00    25.00     0.00     0.00 ""     0.00     0.00        3       32
   308 "CARREL"       "3" "" ""    43.22  -122.65 48 138.00  1.02830  141.905  -124.45   171.00    35.00     0.00     0.00 ""     0.00     0.00        3       32
   309 "CARTER"       "3" "" ""    43.74  -122.13 49 138.00  1.01368  139.888  -113.27   175.00    36.00     0.00     0.00 ""     0.00     0.00        3       33
   310 "CARUSO"       "3" "" ""    43.74  -122.13 49 138.00  1.05091  145.025  -116.25   195.00    40.00     0.00     0.00 ""     0.00     0.00        3       33
   311 "CARY"         "3" "" ""    43.74  -122.13 49 230.00  1.00806  231.854  -106.05 "" "" "" "" ""     0.00     0.00        3       33
   312 "CAXTON"       "3" "" ""    43.74  -122.13 49 230.00  0.93637  215.365  -104.46 "" ""     0.00     0.00 ""     0.00     0.00        3       33
   313 "CECIL"        "3" "" ""    43.27  -122.02 50 230.00  0.94599  217.578  -101.72   265.00    54.00     0.00     0.00 ""     0.00     0.00        3       34
   314 "CHAIN"        "3" "" ""    43.94  -121.68 51 230.00  1.08994  250.685  -101.24   194.00    39.00     0.00     0.00 ""     0.00     0.00        3       36
   315 "CHASE"        "3" "" ""    44.27  -121.39 52 230.00  1.06255  244.386   -87.48   317.00    64.00     0.00     0.00 ""     0.00     0.00        3       36
   316 "CHIFA"        "3" "" ""    44.14  -121.25 53 230.00  1.06740  245.502   -87.96   100.00    20.00     0.00     0.00 ""     0.00     0.00        3       36
   317 "CHUHSI"       "3" "" ""    44.38  -121.06 54 230.00  1.07219  246.604   -83.41 "" ""     0.00     0.00 ""     0.00     0.00        3       37
   318 "CLARK"        "3" "" ""    44.51  -120.98 55 230.00  1.07543  247.349   -82.01   333.00    68.00     0.00     0.00 ""     0.00     0.00        3       37
   319 "CLAY"         "3" "" ""    43.92  -121.12 56 230.00  0.97963  225.315   -87.42   181.00    37.00     0.00     0.00 ""     0.00     0.00        3       35
   320 "CLIVE"        "3" "" ""    43.46  -121.06 57 230.00  0.91488  210.423   -84.50   128.00    26.00     0.00     0.00 ""     0.00     0.00        3       35
   321 "COBB"         "3" "" ""    44.75  -121.12 58 230.00  1.08429  249.387   -81.59 "" ""     0.00     0.00 ""     0.00     0.00        3       37
   322 "COLE"         "3" "" ""    45.44  -121.49 59 230.00  1.08409  249.341   -75.59 "" ""     0.00     0.00 ""     0.00     0.00        3       37
   323 "COMTE"        "3" "" ""    43.25  -121.11 60 230.00  0.88528  203.614   -81.65 "" ""     0.00     0.00 ""     0.00     0.00        3       35
   324 "CURIE"        "3" "" ""    44.21  -122.03 43 230.00  1.01531  233.522   -95.71 "" ""     0.00     0.00 ""     0.00     0.00        3       36
   325 "CURTISS"      "3" "" ""    43.25  -121.13 61 230.00  0.84094  193.416   -77.51 "" "" "" "" ""     0.00     0.00        3       35
  1001 "ABEL_101_Gen1" "1" "" ""    42.40  -117.84 1 22.00  1.17569   25.865   -65.40 "" ""     8.00    25.36 ""     0.00     0.00        1       11
  1002 "ABEL_101_Gen2" "1" "" ""    42.40  -117.84 1 22.00  1.17569   25.865   -65.40 "" ""     8.00    25.36 ""     0.00     0.00        1       11
  1003 "ABEL_101_Gen3" "1" "" ""    42.40  -117.84 1 22.00  1.09306   24.047   -61.73 "" ""    76.00    25.40 ""     0.00     0.00        1       11
  1004 "ABEL_101_Gen4" "1" "" ""    42.40  -117.84 1 22.00  1.09306   24.047   -61.73 "" ""    76.00    25.40 ""     0.00     0.00        1       11
  1005 "ADAMS_102_Gen1" "1" "" ""    42.36  -117.83 2 22.00  1.12430   24.735   -65.42 "" ""     8.00    13.35 ""     0.00     0.00        1       12
  1006 "ADAMS_102_Gen2" "1" "" ""    42.36  -117.83 2 22.00  1.12430   24.735   -65.42 "" ""     8.00    13.35 ""     0.00     0.00        1       12
  1007 "ADAMS_102_Gen3" "1" "" ""    42.36  -117.83 2 22.00  1.07720   23.698   -61.79 "" ""    76.00    13.37 ""     0.00     0.00        1       12
  1008 "ADAMS_102_Gen4" "1" "" ""    42.36  -117.83 2 22.00  1.07720   23.698   -61.79 "" ""    76.00    13.37 ""     0.00     0.00        1       12
  1009 "ALDER_107_Gen1" "1" "" ""    43.70  -117.70 7 22.00  1.00707   22.156   -75.84 "" ""     0.00     0.00 ""     0.00     0.00        1       12
  1010 "ARNE_113_Gen1" "1" "" ""    43.35  -118.27 10 22.00  1.04811   23.059   -53.52 "" ""    55.00    12.47 ""     0.00     0.00        1       14
  1011 "ARNE_113_Gen2" "1" "" ""    43.35  -118.27 10 22.00  1.04811   23.059   -53.52 "" ""    55.00    12.47 ""     0.00     0.00        1       14
  1012 "ARNE_113_Gen3" "1" "" ""    43.35  -118.27 10 22.00  1.04811   23.059   -53.52 "" ""    55.00    12.47 ""     0.00     0.00        1       14
  1013 "ARNE_113_Gen4" "1" "" ""    43.35  -118.27 10 22.00  1.04811   23.059   -53.52 "" ""    55.00    12.47 ""     0.00     0.00        1       14
  1014 "ARNOLD_114_Gen1" "1" "" ""    42.78  -118.82 11 22.00  1.30966   28.813   -55.48 "" ""     0.00   563.47 ""     0.00     0.00        1       16
  1015 "ARTHUR_115_Gen1" "1" "" ""    42.51  -119.33 12 22.00  0.94256   20.736   -30.73 "" ""     5.00     6.00 ""     0.00     0.00        1       16
  1016 "ARTHUR_115_Gen2" "1" "" ""    42.51  -119.33 12 22.00  0.94256   20.736   -30.73 "" ""     5.00     6.00 ""     0.00     0.00        1       16
  1017 "ARTHUR_115_Gen3" "1" "" ""    42.51  -119.33 12 22.00  0.94025   20.685   -26.47 "" ""   155.00    80.00 ""     0.00     0.00        1       16
  1018 "ASSER_116_Gen1" "1" "" ""    42.66  -119.32 13 22.00  0.97750   21.505   -31.19 "" ""   155.00    80.00 ""     0.00     0.00        1       16
  1019 "ASTOR_118_Gen1" "1" "" ""    42.54  -119.80 15 22.00  0.88898   19.558   -24.37 "" ""     0.00     0.00 ""     0.00     0.00        1       17
  1020 "ATTLEE_121_Gen1" "1" "" ""    42.53  -120.07 18 22.00  1.05000   23.100    13.09 "" ""  1917.31  1160.00 ""     0.00     0.00        1       17
  1021 "AUBREY_122_Gen1" "1" "" ""    41.82  -120.32 19 22.00  1.19697   26.333   -11.54 "" ""    50.00    76.31 ""     0.00     0.00        1       17
  1022 "AUBREY_122_Gen2" "1" "" ""    41.82  -120.32 19 22.00  1.19697   26.333   -11.54 "" ""    50.00    76.31 ""     0.00     0.00        1       17
  1023 "AUBREY_122_Gen3" "1" "" ""    41.82  -120.32 19 22.00  1.19697   26.333   -11.54 "" ""    50.00    76.31 ""     0.00     0.00        1       17
  1024 "AUBREY_122_Gen4" "1" "" ""    41.82  -120.32 19 22.00  1.19697   26.333   -11.54 "" ""    50.00    76.31 ""     0.00     0.00        1       17
  1025 "AUBREY_122_Gen5" "1" "" ""    41.82  -120.32 19 22.00  1.19697   26.333   -11.54 "" ""    50.00    76.31 ""     0.00     0.00        1       17
  1026 "AUBREY_122_Gen6" "1" "" ""    41.82  -120.32 19 22.00  1.19697   26.333   -11.54 "" ""    50.00    76.31 ""     0.00     0.00        1       17
  1027 "AUSTEN_123_Gen1" "1" "" ""    43.38  -119.07 20 22.00  1.12905   24.839   -43.35 "" ""   155.00   111.33 ""     0.00     0.00        1       15
  1028 "AUSTEN_123_Gen2" "1" "" ""    43.38  -119.07 20 22.00  1.09338   24.054   -42.96 "" ""   350.00   111.32 ""     0.00     0.00        1       15
  1029 "AUSTEN_123_Gen3" "1" "" ""    43.38  -119.07 20 22.00  1.22349   26.917   -43.55 "" ""    55.00    96.95 ""     0.00     0.00        1       15
  1030 "AUSTEN_123_Gen4" "1" "" ""    43.38  -119.07 20 22.00  1.22349   26.917   -43.55 "" ""    55.00    96.95 ""     0.00     0.00        1       15
  1031 "AUSTEN_123_Gen5" "1" "" ""    43.38  -119.07 20 22.00  1.22349   26.917   -43.55 "" ""    55.00    96.95 ""     0.00     0.00        1       15
  1032 "BACH_201_Gen1" "2" "" ""    45.26  -117.72 21 22.00  1.13372   24.942   -82.71 "" ""     8.00    13.01 ""     0.00     0.00        2       21
  1033 "BACH_201_Gen2" "2" "" ""    45.26  -117.72 21 22.00  1.13372   24.942   -82.71 "" ""     8.00    13.01 ""     0.00     0.00        2       21
  1034 "BACH_201_Gen3" "2" "" ""    45.26  -117.72 21 22.00  1.08923   23.963   -79.10 "" ""    76.00    13.87 ""     0.00     0.00        2       21
  1035 "BACH_201_Gen4" "2" "" ""    45.26  -117.72 21 22.00  1.09926   24.184   -79.03 "" ""    50.00    13.93 ""     0.00     0.00        2       21
  1036 "BACON_202_Gen1" "2" "" ""    45.29  -117.75 22 22.00  1.11946   24.628   -82.73 "" ""     8.00     9.83 ""     0.00     0.00        2       22
  1037 "BACON_202_Gen2" "2" "" ""    45.29  -117.75 22 22.00  1.11946   24.628   -82.73 "" ""     8.00     9.83 ""     0.00     0.00        2       22
  1038 "BACON_202_Gen3" "2" "" ""    45.29  -117.75 22 22.00  1.08389   23.846   -79.13 "" ""    76.00     9.84 ""     0.00     0.00        2       22
  1039 "BACON_202_Gen4" "2" "" ""    45.29  -117.75 22 22.00  1.08389   23.846   -79.13 "" ""    76.00     9.84 ""     0.00     0.00        2       22
  1040 "BAKER_207_Gen1" "2" "" ""    45.05  -117.08 27 22.00  0.99597   21.911   -87.60 "" ""    55.00    19.00 ""     0.00     0.00        2       22
  1041 "BAKER_207_Gen2" "2" "" ""    45.05  -117.08 27 22.00  0.99597   21.911   -87.60 "" ""    55.00    19.00 ""     0.00     0.00        2       22
  1042 "BARLOW_213_Gen1" "2" "" ""    45.15  -118.62 30 22.00  1.10013   24.203   -67.64 "" ""   355.00   116.55 ""     0.00     0.00        2       24
  1043 "BARLOW_213_Gen2" "2" "" ""    45.15  -118.62 30 22.00  1.14153   25.114   -67.68 "" ""    55.00    41.48 ""     0.00     0.00        2       24
  1044 "BARLOW_213_Gen3" "2" "" ""    45.15  -118.62 30 22.00  1.14153   25.114   -67.68 "" ""    55.00    41.48 ""     0.00     0.00        2       24
  1045 "BARRY_214_Gen1" "2" "" ""    44.57  -118.49 31 22.00  1.15763   25.468   -74.89 "" ""     0.00   168.61 ""     0.00     0.00        2       26
  1046 "BARTON_215_Gen1" "2" "" ""    44.15  -118.58 32 22.00  1.11465   24.522   -57.46 "" ""    55.00    31.24 ""     0.00     0.00        2       26
  1047 "BARTON_215_Gen2" "2" "" ""    44.15  -118.58 32 22.00  1.11465   24.522   -57.46 "" ""    55.00    31.24 ""     0.00     0.00        2       26
  1048 "BARTON_215_Gen3" "2" "" ""    44.15  -118.58 32 22.00  1.11693   24.572   -57.43 "" ""    50.00    29.39 ""     0.00     0.00        2       26
  1049 "BARTON_215_Gen4" "2" "" ""    44.15  -118.58 32 22.00  1.11693   24.572   -57.43 "" ""    50.00    29.39 ""     0.00     0.00        2       26
  1050 "BARTON_215_Gen5" "2" "" ""    44.15  -118.58 32 22.00  1.11693   24.572   -57.43 "" ""    50.00    29.39 ""     0.00     0.00        2       26
  1051 "BASOV_216_Gen1" "2" "" ""    44.26  -118.73 33 22.00  1.14859   25.269   -59.25 "" ""   155.00   143.30 ""     0.00     0.00        2       26
  1052 "BAYLE_218_Gen1" "2" "" ""    44.11  -119.08 35 22.00  1.06463   23.422   -59.43 "" ""     0.00     0.00 ""     0.00     0.00        2       27
  1053 "BEHRING_221_Gen1" "2" "" ""    44.32  -119.20 38 22.00  1.09183   24.020   -54.00 "" ""   296.97    80.07 ""     0.00     0.00        2       27
  1054 "BELL_222_Gen1" "2" "" ""    45.33  -119.29 39 22.00  1.06558   23.443   -46.50 "" ""    50.00    -0.95 ""     0.00     0.00        2       27
  1055 "BELL_222_Gen2" "2" "" ""    45.33  -119.29 39 22.00  1.06558   23.443   -46.50 "" ""    50.00    -0.95 ""     0.00     0.00        2       27
  1056 "BELL_222_Gen3" "2" "" ""    45.33  -119.29 39 22.00  1.06558   23.443   -46.50 "" ""    50.00    -0.95 ""     0.00     0.00        2       27
  1057 "BELL_222_Gen4" "2" "" ""    45.33  -119.29 39 22.00  1.06558   23.443   -46.50 "" ""    50.00    -0.95 ""     0.00     0.00        2       27
  1058 "BELL_222_Gen5" "2" "" ""    45.33  -119.29 39 22.00  1.06558   23.443   -46.50 "" ""    50.00    -0.95 ""     0.00     0.00        2       27
  1059 "BELL_222_Gen6" "2" "" ""    45.33  -119.29 39 22.00  1.06558   23.443   -46.50 "" ""    50.00    -0.95 ""     0.00     0.00        2       27
  1060 "BLOCH_223_Gen1" "2" "" ""    44.82  -119.54 40 22.00  1.08414   23.851   -61.26 "" ""   155.00    18.79 ""     0.00     0.00        2       25
  1061 "BLOCH_223_Gen2" "2" "" ""    44.82  -119.54 40 22.00  1.08414   23.851   -61.26 "" ""   155.00    18.79 ""     0.00     0.00        2       25
  1062 "BLOCH_223_Gen3" "2" "" ""    44.82  -119.54 40 22.00  1.07754   23.706   -61.02 "" ""   350.00    18.81 ""     0.00     0.00        2       25
  1063 "BLOCH_223_Gen4" "2" "" ""    44.82  -119.54 40 22.00  1.10879   24.393   -64.45 "" ""    22.00    18.79 ""     0.00     0.00        2       25
  1064 "BLOCH_223_Gen5" "2" "" ""    44.82  -119.54 40 22.00  1.10879   24.393   -64.45 "" ""    22.00    18.79 ""     0.00     0.00        2       25
  1065 "BLOCH_223_Gen6" "2" "" ""    44.82  -119.54 40 22.00  1.10879   24.393   -64.45 "" ""    22.00    18.79 ""     0.00     0.00        2       25
  1066 "CABELL_301_Gen1" "3" "" ""    44.05  -122.82 41 22.00  1.24875   27.473  -115.90 "" ""     8.00    26.95 ""     0.00     0.00        3       31
  1067 "CABELL_301_Gen2" "3" "" ""    44.05  -122.82 41 22.00  1.24875   27.473  -115.90 "" ""     8.00    26.95 ""     0.00     0.00        3       31
  1068 "CABELL_301_Gen3" "3" "" ""    44.05  -122.82 41 22.00  1.18718   26.118  -113.77 "" ""    44.00    31.15 ""     0.00     0.00        3       31
  1069 "CABELL_301_Gen4" "3" "" ""    44.05  -122.82 41 22.00  1.18718   26.118  -113.77 "" ""    44.00    31.15 ""     0.00     0.00        3       31
  1070 "CABOT_302_Gen1" "3" "" ""    44.03  -122.86 42 22.00  1.24466   27.383  -116.02 "" ""     8.00    25.65 ""     0.00     0.00        3       32
  1071 "CABOT_302_Gen2" "3" "" ""    44.03  -122.86 42 22.00  1.24466   27.383  -116.02 "" ""     8.00    25.65 ""     0.00     0.00        3       32
  1072 "CABOT_302_Gen3" "3" "" ""    44.03  -122.86 42 22.00  1.18431   26.055  -112.92 "" ""    55.00    29.29 ""     0.00     0.00        3       32
  1073 "CABOT_302_Gen4" "3" "" ""    44.03  -122.86 42 22.00  1.18431   26.055  -112.92 "" ""    55.00    29.29 ""     0.00     0.00        3       32
  1074 "CAREW_307_Gen1" "3" "" ""    43.10  -122.88 47 22.00  1.13113   24.885  -120.14 "" ""    55.00    39.02 ""     0.00     0.00        3       32
  1075 "CAREW_307_Gen2" "3" "" ""    43.10  -122.88 47 22.00  1.13113   24.885  -120.14 "" ""    55.00    39.02 ""     0.00     0.00        3       32
  1076 "CECIL_313_Gen1" "3" "" ""    43.27  -122.02 50 22.00  0.94599   20.812  -101.72 "" ""     0.00     0.00 ""     0.00     0.00        3       34
  1077 "CHAIN_314_Gen1" "3" "" ""    43.94  -121.68 51 22.00  1.28073   28.176  -101.40 "" ""     0.00   413.28 ""     0.00     0.00        3       36
  1078 "CHASE_315_Gen1" "3" "" ""    44.27  -121.39 52 22.00  1.12164   24.676   -84.69 "" ""     5.00     7.46 ""     0.00     0.00        3       36
  1079 "CHASE_315_Gen2" "3" "" ""    44.27  -121.39 52 22.00  1.12164   24.676   -84.69 "" ""     5.00     7.46 ""     0.00     0.00        3       36
  1080 "CHASE_315_Gen3" "3" "" ""    44.27  -121.39 52 22.00  1.12164   24.676   -84.69 "" ""     5.00     7.46 ""     0.00     0.00        3       36
  1081 "CHASE_315_Gen4" "3" "" ""    44.27  -121.39 52 22.00  1.12164   24.676   -84.69 "" ""     5.00     7.46 ""     0.00     0.00        3       36
  1082 "CHASE_315_Gen5" "3" "" ""    44.27  -121.39 52 22.00  1.12164   24.676   -84.69 "" ""     5.00     7.46 ""     0.00     0.00        3       36
  1083 "CHASE_315_Gen6" "3" "" ""    44.27  -121.39 52 22.00  1.08241   23.813   -81.46 "" ""    55.00    11.72 ""     0.00     0.00        3       36
  1084 "CHASE_315_Gen7" "3" "" ""    44.27  -121.39 52 22.00  1.08241   23.813   -81.46 "" ""    55.00    11.72 ""     0.00     0.00        3       36
  1085 "CHASE_315_Gen8" "3" "" ""    44.27  -121.39 52 22.00  1.11367   24.501   -83.39 "" ""    55.00    39.31 ""     0.00     0.00        3       36
  1086 "CHIFA_316_Gen1" "3" "" ""    44.14  -121.25 53 22.00  1.36583   30.048   -83.85 "" ""   155.00   601.32 ""     0.00     0.00        3       36
  1087 "CLARK_318_Gen1" "3" "" ""    44.51  -120.98 55 22.00  1.07543   23.659   -82.01 "" ""     0.00     0.00 ""     0.00     0.00        3       37
  1088 "COBB_321_Gen1" "3" "" ""    44.75  -121.12 58 22.00  1.13073   24.876   -76.08 "" ""   355.00   176.70 ""     0.00     0.00        3       37
  1089 "COLE_322_Gen1" "3" "" ""    45.44  -121.49 59 22.00  1.08229   23.810   -69.76 "" ""    55.00     0.07 ""     0.00     0.00        3       37
  1090 "COLE_322_Gen2" "3" "" ""    45.44  -121.49 59 22.00  1.08229   23.810   -69.76 "" ""    55.00     0.07 ""     0.00     0.00        3       37
  1091 "COLE_322_Gen3" "3" "" ""    45.44  -121.49 59 22.00  1.08225   23.809   -69.72 "" ""    50.00     0.07 ""     0.00     0.00        3       37
  1092 "COLE_322_Gen4" "3" "" ""    45.44  -121.49 59 22.00  1.08225   23.809   -69.72 "" ""    50.00     0.07 ""     0.00     0.00        3       37
  1093 "COLE_322_Gen5" "3" "" ""    45.44  -121.49 59 22.00  1.08225   23.809   -69.72 "" ""    50.00     0.07 ""     0.00     0.00        3       37
  1094 "COLE_322_Gen6" "3" "" ""    45.44  -121.49 59 22.00  1.08225   23.809   -69.72 "" ""    50.00     0.07 ""     0.00     0.00        3       37
  1095 "COMTE_323_Gen1" "3" "" ""    43.25  -121.11 60 22.00  0.88528   19.476   -81.65 "" ""     0.00     0.00 ""     0.00     0.00        3       35
  1096 "COMTE_323_Gen2" "3" "" ""    43.25  -121.11 60 22.00  0.88528   19.476   -81.65 "" ""     0.00     0.00 ""     0.00     0.00        3       35
}
